Circuit: * C:\Users\rburg\OneDrive\Desktop\classes\E151\dp1\LTspice\Draft1.asc

Warning: Multiple definitions of model "2scr375p" Type: BJT
Warning: Multiple definitions of model "bc857b" Type: BJT
Warning: Multiple definitions of model "bc847c" Type: BJT
Warning: Multiple definitions of model "bc847b" Type: BJT
WARNING: Node OUTPUT is floating.

WARNING: Less than two connections to node output.  This node is used by c_out.
Direct Newton iteration for .op point succeeded.

Date: Tue Feb 20 16:50:54 2024
Total elapsed time: 0.023 seconds.

tnom = 27
temp = 27
method = trap
totiter = 5
traniter = 0
tranpoints = 0
accept = 0
rejected = 0
matrix size = 8
fillins = 0
solver = Normal
Avg thread counts: 8.0/0.0/8.0/8.0
Matrix Compiler1:      20 opcodes
Matrix Compiler2: 594 bytes object code size
